synth/smartds_linecodes.dss
! Line codes copied verbatim from NREL SMART-DS v1.0 (GSO urban-suburban, feeder uhs0_1247--udt12274),
! https://data.openei.org/submissions/2981 . SMART-DS is published by NREL under CC BY 4.0.

New Linecode.3P_OH_AL_ACSR_477kcmil_Hawk_3 units=km nphases=3 Faultrate=0.1 Rmatrix=(0.1731667 0.05066667 0.05066667 | 0.05066667 0.1731667 0.05066667 | 0.05066667 0.05066667 0.1731667 ) Xmatrix=(0.5780332999999999 0.1957333 0.1957333 | 0.1957333 0.5780332999999999 0.1957333 | 0.1957333 0.1957333 0.5780332999999999 ) Cmatrix=(8.040433 -3.535467 -3.535467 | -3.535467 8.040433 -3.535467 | -3.535467 -3.535467 8.040433 ) normamps=595.0
New Linecode.3P_OH_AL_ACSR_4/0_Penguin_3 units=km nphases=3 Faultrate=0.1 Rmatrix=(0.3635667 0.09006667 0.09006667 | 0.09006667 0.3635667 0.09006667 | 0.09006667 0.09006667 0.3635667 ) Xmatrix=(0.6385333 0.2202333 0.2202333 | 0.2202333 0.6385333 0.2202333 | 0.2202333 0.2202333 0.6385333 ) Cmatrix=(7.448267 -3.1846329999999994 -3.1846329999999994 | -3.1846329999999994 7.448267 -3.1846329999999994 | -3.1846329999999994 -3.1846329999999994 7.448267 ) normamps=325.0
New Linecode.1P_OH_AL_ACSR_#2_Sparrow_1 units=km nphases=1 Faultrate=0.1 Rmatrix=(1.0412 ) Xmatrix=(0.7627 ) Cmatrix=(7.69673 ) normamps=165.0
New Linecode.1P_OH_AL_2/0_Rucina_2 units=km nphases=2 Faultrate=0.1 Rmatrix=(0.7166333333333332 0.28753333333333336 | 0.28753333333333336 0.7166333333333332 ) Xmatrix=(0.28883333333333333 0.1932333333333333 | 0.1932333333333333 0.28883333333333333 ) Cmatrix=(39.3595 -19.342100000000002 | -19.342100000000002 39.3595 ) normamps=115.0
New Linecode.padswitch_3 units=km nphases=3 Faultrate=0.1 Rmatrix=(0.001 0.0 0.0 | 0.0 0.001 0.0 | 0.0 0.0 0.001 ) Xmatrix=(0.001 0.0 0.0 | 0.0 0.001 0.0 | 0.0 0.0 0.001 ) Cmatrix=(3.499563 -0.1093613 -0.1093613 | -0.1093613 3.499563 -0.1093613 | -0.1093613 -0.1093613 3.499563 ) normamps=295.0
New Linecode.padswitch_1 units=km nphases=1 Faultrate=0.1 Rmatrix=(0.001 ) Xmatrix=(0.001 ) Cmatrix=(3.608924 ) normamps=151.0
New Linecode.fuse_1_4 units=km nphases=1 Faultrate=0.1 Rmatrix=(0.001 ) Xmatrix=(0.001 ) Cmatrix=(3.4 ) normamps=295.0
New Linecode.3P_UG_AL_350kcmil_3_3 units=km nphases=3 Faultrate=0.1 Rmatrix=(0.3388667 0.1744667 0.1744667 | 0.1744667 0.3388667 0.1744667 | 0.1744667 0.1744667 0.3388667 ) Xmatrix=(0.5126 0.2912 0.2912 | 0.2912 0.5126 0.2912 | 0.2912 0.2912 0.5126 ) Cmatrix=(164.365 -81.63499999999999 -81.63499999999999 | -81.63499999999999 164.365 -81.63499999999999 | -81.63499999999999 -81.63499999999999 164.365 ) normamps=370.0
New Linecode.recloser_3_9 units=km nphases=3 Faultrate=0.1 Rmatrix=(0.001 0.0 0.0 | 0.0 0.001 0.0 | 0.0 0.0 0.001 ) Xmatrix=(0.001 0.0 0.0 | 0.0 0.001 0.0 | 0.0 0.0 0.001 ) Cmatrix=(3.499563 -0.1093613 -0.1093613 | -0.1093613 3.499563 -0.1093613 | -0.1093613 -0.1093613 3.499563 ) normamps=115.0
New Linecode.3P_OH_AL_ACSR_1033kcmil_Curlew_3 units=km nphases=3 Faultrate=0.1 Rmatrix=(0.0871 0.0296 0.0296 | 0.0296 0.0871 0.0296 | 0.0296 0.0296 0.0871 ) Xmatrix=(0.5382333 0.1839333 0.1839333 | 0.1839333 0.5382333 0.1839333 | 0.1839333 0.1839333 0.5382333 ) Cmatrix=(8.6745 -3.8842 -3.8842 | -3.8842 8.6745 -3.8842 | -3.8842 -3.8842 8.6745 ) normamps=960.0
New Linecode.1P_UG_AL_4/0_Sweetbriar_2 units=km nphases=2 Faultrate=0.1 Rmatrix=(0.5462333 0.2755333 | 0.2755333 0.5462333 ) Xmatrix=(0.2976 0.2043 | 0.2043 0.2976 ) Cmatrix=(39.3278 -18.6046 | -18.6046 39.3278 ) normamps=301.0
New Linecode.3P_UG_AL_750kcmil_3_2 units=km nphases=3 Faultrate=0.1 Rmatrix=(0.22961329999999996 0.1512433 0.1512433 | 0.1512433 0.22961329999999996 0.1512433 | 0.1512433 0.1512433 0.22961329999999996 ) Xmatrix=(0.54 0.2955 0.2955 | 0.2955 0.54 0.2955 | 0.2955 0.2955 0.54 ) Cmatrix=(169.559 -84.214 -84.214 | -84.214 169.559 -84.214 | -84.214 -84.214 169.559 ) normamps=550.0
New Linecode.padswitch_3_5 units=km nphases=3 Faultrate=0.1 Rmatrix=(0.001 0.0 0.0 | 0.0 0.001 0.0 | 0.0 0.0 0.001 ) Xmatrix=(0.001 0.0 0.0 | 0.0 0.001 0.0 | 0.0 0.0 0.001 ) Cmatrix=(3.499563 -0.1093613 -0.1093613 | -0.1093613 3.499563 -0.1093613 | -0.1093613 -0.1093613 3.499563 ) normamps=550.0
New Linecode.padswitch_3_11 units=km nphases=3 Faultrate=0.1 Rmatrix=(0.001 0.0 0.0 | 0.0 0.001 0.0 | 0.0 0.0 0.001 ) Xmatrix=(0.001 0.0 0.0 | 0.0 0.001 0.0 | 0.0 0.0 0.001 ) Cmatrix=(3.499563 -0.1093613 -0.1093613 | -0.1093613 3.499563 -0.1093613 | -0.1093613 -0.1093613 3.499563 ) normamps=960.0
